DMDc utilizing OpenFAST/OpenFOAM simulations. Will be compared to LSTM based control and predictions
